Version 4
SHEET 1 1724 2576
WIRE -768 -208 -784 -208
WIRE -640 -208 -688 -208
WIRE -1088 -192 -1200 -192
WIRE -1312 -160 -1344 -160
WIRE -1200 -160 -1200 -192
WIRE -1200 -160 -1248 -160
WIRE -1200 -112 -1200 -160
WIRE -1184 -112 -1200 -112
WIRE -1088 -96 -1088 -192
WIRE -1088 -96 -1120 -96
WIRE -992 -96 -1088 -96
WIRE -896 -96 -928 -96
WIRE -784 -96 -784 -208
WIRE -784 -96 -816 -96
WIRE -752 -96 -784 -96
WIRE -1184 -80 -1200 -80
WIRE -640 -80 -640 -208
WIRE -640 -80 -688 -80
WIRE -560 -80 -640 -80
WIRE -1456 -64 -1584 -64
WIRE -1344 -64 -1344 -160
WIRE -1344 -64 -1376 -64
WIRE -1312 -64 -1344 -64
WIRE -1200 -64 -1200 -80
WIRE -1200 -64 -1232 -64
WIRE -752 -64 -784 -64
WIRE -1200 16 -1200 -64
WIRE -784 48 -784 -64
WIRE -1200 112 -1200 80
WIRE -1792 240 -1808 240
WIRE -1664 240 -1712 240
WIRE -1120 256 -1152 256
WIRE -992 256 -1040 256
WIRE -1472 272 -1504 272
WIRE -1376 272 -1408 272
WIRE -1920 368 -2064 368
WIRE -1808 368 -1808 240
WIRE -1808 368 -1840 368
WIRE -1776 368 -1808 368
WIRE -1664 384 -1664 240
WIRE -1664 384 -1712 384
WIRE -1584 384 -1584 -64
WIRE -1584 384 -1664 384
WIRE -1504 384 -1504 272
WIRE -1504 384 -1584 384
WIRE -1472 384 -1504 384
WIRE -1376 384 -1376 272
WIRE -1376 384 -1392 384
WIRE -1312 384 -1376 384
WIRE -1152 384 -1152 256
WIRE -1152 384 -1232 384
WIRE -1104 384 -1152 384
WIRE -1776 400 -1808 400
WIRE -992 400 -992 256
WIRE -992 400 -1040 400
WIRE -848 400 -992 400
WIRE -1104 416 -1152 416
WIRE -1808 464 -1808 400
WIRE -1152 464 -1152 416
WIRE -2064 688 -2064 368
FLAG -2432 80 0
FLAG -2432 0 V+
FLAG -2304 80 0
FLAG -2304 0 V-
FLAG -2064 768 0
FLAG -1072 368 V+
FLAG -1072 432 V-
FLAG -1152 464 0
FLAG -848 400 AIN
IOPIN -848 400 Out
FLAG -1152 -128 V+
FLAG -1152 -64 V-
FLAG -1200 112 0
FLAG -560 -80 RatLVL
IOPIN -560 -80 Out
FLAG -720 -112 V+
FLAG -720 -48 V-
FLAG -784 48 0
FLAG -1744 352 V+
FLAG -1744 416 V-
FLAG -1808 464 0
SYMBOL voltage -2432 -16 R0
WINDOW 123 0 0 Left 0
WINDOW 39 0 0 Left 0
SYMATTR InstName V1
SYMATTR Value 15
SYMBOL voltage -2304 -16 R0
WINDOW 123 0 0 Left 0
WINDOW 39 0 0 Left 0
SYMATTR InstName V2
SYMATTR Value -15
SYMBOL voltage -2064 672 R0
WINDOW 3 24 152 Left 2
WINDOW 123 24 124 Left 2
WINDOW 39 0 0 Left 0
SYMATTR Value SINE(0 1 1000 0 0 0 1000)
SYMATTR Value2 AC 1
SYMATTR InstName V3
SYMBOL OpAmps\\ADTL084 -1072 336 R0
SYMATTR InstName U1
SYMBOL res -1376 368 R90
WINDOW 0 0 56 VBottom 2
WINDOW 3 32 56 VTop 2
SYMATTR InstName R69
SYMATTR Value 75k
SYMBOL res -1216 368 R90
WINDOW 0 0 56 VBottom 2
WINDOW 3 32 56 VTop 2
SYMATTR InstName R70
SYMATTR Value 18k
SYMBOL res -1024 240 R90
WINDOW 0 0 56 VBottom 2
WINDOW 3 32 56 VTop 2
SYMATTR InstName R71
SYMATTR Value 91k
SYMBOL cap -1408 256 R90
WINDOW 0 0 32 VBottom 2
WINDOW 3 32 32 VTop 2
SYMATTR InstName C46
SYMATTR Value 1n
SYMBOL res -1360 -80 R90
WINDOW 0 0 56 VBottom 2
WINDOW 3 32 56 VTop 2
SYMATTR InstName R105
SYMATTR Value 1k6
SYMBOL res -1216 -80 R90
WINDOW 0 0 56 VBottom 2
WINDOW 3 32 56 VTop 2
SYMATTR InstName R106
SYMATTR Value 1k6
SYMBOL cap -1248 -176 R90
WINDOW 0 0 32 VBottom 2
WINDOW 3 32 32 VTop 2
SYMATTR InstName C70
SYMATTR Value 220n
SYMBOL cap -1184 80 R180
WINDOW 0 24 56 Left 2
WINDOW 3 24 8 Left 2
SYMATTR InstName C69
SYMATTR Value 220n
SYMBOL OpAmps\\ADTL084 -1152 -160 R0
SYMATTR InstName U2
SYMBOL cap -928 -112 R90
WINDOW 0 0 32 VBottom 2
WINDOW 3 32 32 VTop 2
SYMATTR InstName C73
SYMATTR Value 220n
SYMBOL res -800 -112 R90
WINDOW 0 0 56 VBottom 2
WINDOW 3 32 56 VTop 2
SYMATTR InstName R107
SYMATTR Value 6k8
SYMBOL res -672 -224 R90
WINDOW 0 0 56 VBottom 2
WINDOW 3 32 56 VTop 2
SYMATTR InstName R108
SYMATTR Value 56k
SYMBOL OpAmps\\ADTL084 -720 -144 R0
SYMATTR InstName U3
SYMBOL OpAmps\\ADTL084 -1744 320 R0
SYMATTR InstName U4
SYMBOL res -1696 224 R90
WINDOW 0 0 56 VBottom 2
WINDOW 3 32 56 VTop 2
SYMATTR InstName R78
SYMATTR Value 10k
SYMBOL res -1824 352 R90
WINDOW 0 0 56 VBottom 2
WINDOW 3 32 56 VTop 2
SYMATTR InstName R80
SYMATTR Value 10k
TEXT -2592 200 Left 2 !.ac dec 100 1 22000
TEXT -2592 152 Left 2 !;tran 0 250ms 230ms 0.0000762939453125
TEXT -2592 240 Left 2 !;noise V(3) V3 oct 24 20 20k
TEXT -1336 272 Left 2 ;PreEmphasis
TEXT -1312 -240 Left 2 ;360Hz LowPass
